data_GAPO4_XRAY_publ

# 8. Phase information from GSAS

_pd_phase_name						   "GaPO4 RT"
_cell_length_a                         4.90063(16)
_cell_length_b                         4.90063
_cell_length_c                         11.0481(6)
_cell_angle_alpha                      90.0
_cell_angle_beta                       90.0
_cell_angle_gamma                      120.0
_cell_volume                           229.785(13)
_symmetry_cell_setting                 trigonal
_symmetry_space_group_name_H-M         "P 31 2 1"
loop_ 
_symmetry_equiv_pos_as_xyz
       +x,+y,+z 
       -y,x-y,+z+1/3 
       y-x,-x,+z+2/3 
       +y,+x,-z 
       -x,y-x,-z+1/3 
       x-y,-y,-z+2/3 
loop_
      _atom_site_type_symbol
      _atom_site_label
      _atom_site_fract_x
      _atom_site_fract_y
      _atom_site_fract_z
      _atom_site_occupancy
      _atom_site_symmetry_multiplicity
Ga Ga1     0.45702      0.0          0.33333     1.0    3
P  P1      0.45528      0.0          0.83333     1.0    3
O  O1      0.41613      0.31216      0.39086     1.0    6
O  O2      0.40600      0.27136      0.87750     1.0    6
#--eof--eof--eof--eof--eof--eof--eof--eof--eof--eof--eof--eof--eof--eof--eof--#
