data_SRTIO3_5K
_audit_creation_method         'generated by data2config v2.3g (June 2012)'

_cell_length_a                   5.51166
_cell_length_b                   5.51166
_cell_length_c                   7.80464
_cell_angle_alpha               90.00000
_cell_angle_beta                90.00000
_cell_angle_gamma               90.00000

loop_
_symmetry_equiv_pos_as_xyz
'+x,+y,+z'

loop_
_atom_site_type_symbol
_atom_site_fract_x
_atom_site_fract_y
_atom_site_fract_z
Sr        0.5000    0.0000    0.2500
Sr        0.0000    0.5000    0.7500
Sr        0.5000    0.0000    0.7500
Sr        0.0000    0.5000    0.2500
Ti        0.0000    0.0000    0.0000
Ti        0.5000    0.5000    0.5000
Ti        0.0000    0.0000    0.5000
Ti        0.5000    0.5000    0.0000
O         0.0000    0.0000    0.2500
O         0.5000    0.5000    0.7500
O         0.0000    0.0000    0.7500
O         0.5000    0.5000    0.2500
O         0.2500    0.2500    0.0000
O         0.7500    0.7500    0.5000
O         0.7500    0.7500    0.0000
O         0.2500    0.2500    0.5000
O         0.7500    0.2500    0.0000
O         0.2500    0.7500    0.5000
O         0.2500    0.7500    0.0000
O         0.7500    0.2500    0.5000
